576

H	8.34	-6.344	0.016
H	8.34	6.076	0.016
H	8.34	18.496	0.016
H	9.056	-4.998	0.292
H	9.056	7.422	0.292
H	9.056	19.842	0.292
O	8.166	-5.402	0.222
O	8.166	7.018	0.222
O	8.166	19.438	0.222
H	2.644	-1.773	1.535
H	2.644	10.647	1.535
H	2.644	23.067	1.535
H	2.651	-2.011	0.003
H	2.651	10.409	0.003
H	2.651	22.829	0.003
O	3.099	-1.502	0.711
O	3.099	10.918	0.711
O	3.099	23.338	0.711
H	0.098	-10.504	5.479
H	0.098	1.916	5.479
H	0.098	14.336	5.479
H	0.892	-11.592	6.246
H	0.892	0.828	6.246
H	0.892	13.248	6.246
O	1.011	-10.801	5.68
O	1.011	1.619	5.68
O	1.011	14.039	5.68
H	0.854	-4.178	4.102
H	0.854	8.242	4.102
H	0.854	20.662	4.102
H	0.249	-2.754	4.195
H	0.249	9.666	4.195
H	0.249	22.086	4.195
O	0.003	-3.694	4.066
O	0.003	8.726	4.066
O	0.003	21.146	4.066
H	7.06	-6.496	1.798
H	7.06	5.924	1.798
H	7.06	18.344	1.798
H	5.529	-6.651	1.61
H	5.529	5.769	1.61
H	5.529	18.189	1.61
O	6.222	-5.988	1.814
O	6.222	6.432	1.814
O	6.222	18.852	1.814
H	1.685	-5.379	1.988
H	1.685	7.041	1.988
H	1.685	19.461	1.988
H	0.546	-6.367	2.345
H	0.546	6.053	2.345
H	0.546	18.473	2.345
O	1.344	-5.938	2.717
O	1.344	6.482	2.717
O	1.344	18.902	2.717
H	7.27	-4.178	9.283
H	7.27	8.242	9.283
H	7.27	20.662	9.283
H	6.719	-3.215	8.2
H	6.719	9.205	8.2
H	6.719	21.625	8.2
O	7.271	-4.017	8.316
O	7.271	8.403	8.316
O	7.271	20.823	8.316
H	0.004	-9.352	0.22
H	0.004	3.068	0.22
H	0.004	15.488	0.22
H	0.587	-8.695	1.497
H	0.587	3.725	1.497
H	0.587	16.145	1.497
O	0.162	-9.516	1.173
O	0.162	2.904	1.173
O	0.162	15.324	1.173
H	9.438	-2.164	2.58
H	9.438	10.256	2.58
H	9.438	22.676	2.58
H	10.862	-1.656	2.236
H	10.862	10.764	2.236
H	10.862	23.184	2.236
O	10.261	-2.422	2.116
O	10.261	9.998	2.116
O	10.261	22.418	2.116
H	6.464	-3.172	6.017
H	6.464	9.248	6.017
H	6.464	21.668	6.017
H	6.184	-1.689	6.369
H	6.184	10.731	6.369
H	6.184	23.151	6.369
O	6.899	-2.297	6.089
O	6.899	10.123	6.089
O	6.899	22.543	6.089
H	4.575	-9.088	9.423
H	4.575	3.332	9.423
H	4.575	15.752	9.423
H	4.268	-10.557	9.033
H	4.268	1.863	9.033
H	4.268	14.283	9.033
O	4.04	-9.631	8.806
O	4.04	2.789	8.806
O	4.04	15.209	8.806
H	10.536	-2.261	4.899
H	10.536	10.159	4.899
H	10.536	22.579	4.899
H	9.02	-1.944	4.971
H	9.02	10.476	4.971
H	9.02	22.896	4.971
O	9.9	-1.515	4.919
O	9.9	10.905	4.919
O	9.9	23.325	4.919
H	7.923	-8.502	0.385
H	7.923	3.918	0.385
H	7.923	16.338	0.385
H	6.62	-7.738	0.037
H	6.62	4.682	0.037
H	6.62	17.102	0.037
O	6.954	-8.623	0.293
O	6.954	3.797	0.293
O	6.954	16.217	0.293
H	10.308	-8.735	7.365
H	10.308	3.685	7.365
H	10.308	16.105	7.365
H	8.85	-9.257	7.298
H	8.85	3.163	7.298
H	8.85	15.583	7.298
O	9.722	-9.441	7.707
O	9.722	2.979	7.707
O	9.722	15.399	7.707
H	10.841	-7.155	9.593
H	10.841	5.265	9.593
H	10.841	17.685	9.593
H	9.558	-8.024	9.638
H	9.558	4.396	9.638
H	9.558	16.816	9.638
O	10.536	-8.086	9.604
O	10.536	4.334	9.604
O	10.536	16.754	9.604
H	5.54	-4.31	10.68
H	5.54	8.11	10.68
H	5.54	20.53	10.68
H	5.494	-5.434	9.613
H	5.494	6.986	9.613
H	5.494	19.406	9.613
O	5.18	-5.206	10.514
O	5.18	7.214	10.514
O	5.18	19.634	10.514
H	8.386	-12.035	2.353
H	8.386	0.385	2.353
H	8.386	12.805	2.353
H	9.668	-12.181	1.493
H	9.668	0.239	1.493
H	9.668	12.659	1.493
O	9.354	-12.178	2.422
O	9.354	0.242	2.422
O	9.354	12.662	2.422
H	1.55	-6.728	4.763
H	1.55	5.692	4.763
H	1.55	18.112	4.763
H	2.436	-6.012	5.814
H	2.436	6.408	5.814
H	2.436	18.828	5.814
O	2.47	-6.68	5.097
O	2.47	5.74	5.097
O	2.47	18.16	5.097
H	4.398	-2.717	5.4
H	4.398	9.703	5.4
H	4.398	22.123	5.4
H	3.705	-4.085	5.176
H	3.705	8.335	5.176
H	3.705	20.755	5.176
O	4.551	-3.612	5.031
O	4.551	8.808	5.031
O	4.551	21.228	5.031
H	6.721	-6.932	10.874
H	6.721	5.488	10.874
H	6.721	17.908	10.874
H	5.926	-8.261	10.906
H	5.926	4.159	10.906
H	5.926	16.579	10.906
O	5.815	-7.294	10.79
O	5.815	5.126	10.79
O	5.815	17.546	10.79
H	10.474	-10.171	4.285
H	10.474	2.249	4.285
H	10.474	14.669	4.285
H	10.912	-9.061	5.274
H	10.912	3.359	5.274
H	10.912	15.779	5.274
O	10.123	-9.544	4.951
O	10.123	2.876	4.951
O	10.123	15.296	4.951
H	1.009	-9.464	10.919
H	1.009	2.956	10.919
H	1.009	15.376	10.919
H	0.755	-10.993	10.894
H	0.755	1.427	10.894
H	0.755	13.847	10.894
O	0.425	-10.146	10.526
O	0.425	2.274	10.526
O	0.425	14.694	10.526
H	9.012	-8.854	3.175
H	9.012	3.566	3.175
H	9.012	15.986	3.175
H	8.911	-7.436	2.558
H	8.911	4.984	2.558
H	8.911	17.404	2.558
O	8.367	-8.153	2.945
O	8.367	4.267	2.945
O	8.367	16.687	2.945
H	4.43	-7.893	0.164
H	4.43	4.527	0.164
H	4.43	16.947	0.164
H	3.555	-9.032	0.744
H	3.555	3.388	0.744
H	3.555	15.808	0.744
O	3.603	-8.393	0.003
O	3.603	4.027	0.003
O	3.603	16.447	0.003
H	2.543	-11.931	9.088
H	2.543	0.489	9.088
H	2.543	12.909	9.088
H	1.02	-11.758	8.855
H	1.02	0.662	8.855
H	1.02	13.082	8.855
O	1.69	-12.411	9.148
O	1.69	0.009	9.148
O	1.69	12.429	9.148
H	1.443	-7.856	9.481
H	1.443	4.564	9.481
H	1.443	16.984	9.481
H	0.927	-6.395	9.493
H	0.927	6.025	9.493
H	0.927	18.445	9.493
O	1.605	-6.974	9.086
O	1.605	5.446	9.086
O	1.605	17.866	9.086
H	4.08	-8.456	6.557
H	4.08	3.964	6.557
H	4.08	16.384	6.557
H	4.493	-8.384	5.065
H	4.493	4.036	5.065
H	4.493	16.456	5.065
O	4.418	-7.838	5.876
O	4.418	4.582	5.876
O	4.418	17.002	5.876
H	1.562	-11.411	1.2
H	1.562	1.009	1.2
H	1.562	13.429	1.2
H	2.983	-11.191	0.621
H	2.983	1.229	0.621
H	2.983	13.649	0.621
O	2.319	-10.789	1.219
O	2.319	1.631	1.219
O	2.319	14.051	1.219
H	9.435	-12.418	4.677
H	9.435	0.002	4.677
H	9.435	12.422	4.677
H	10.179	-11.712	5.839
H	10.179	0.708	5.839
H	10.179	13.128	5.839
O	10.333	-12.238	5.026
O	10.333	0.182	5.026
O	10.333	12.602	5.026
H	1.852	-1.509	6.987
H	1.852	10.911	6.987
H	1.852	23.331	6.987
H	3.387	-1.667	7.131
H	3.387	10.753	7.131
H	3.387	23.173	7.131
O	2.566	-2.18	6.981
O	2.566	10.24	6.981
O	2.566	22.66	6.981
H	8.554	-3.936	6.033
H	8.554	8.484	6.033
H	8.554	20.904	6.033
H	9.192	-5.349	6.044
H	9.192	7.071	6.044
H	9.192	19.491	6.044
O	8.332	-4.886	6.127
O	8.332	7.534	6.127
O	8.332	19.954	6.127
H	-0.007	-3.948	0.123
H	-0.007	8.472	0.123
H	-0.007	20.892	0.123
H	1.538	-3.909	0.001
H	1.538	8.511	0.001
H	1.538	20.931	0.001
O	0.777	-4.527	0.019
O	0.777	7.893	0.019
O	0.777	20.313	0.019
H	0.904	-3.34	10.384
H	0.904	9.08	10.384
H	0.904	21.5	10.384
H	0.2	-3.323	9.003
H	0.2	9.097	9.003
H	0.2	21.517	9.003
O	1.076	-3.444	9.424
O	1.076	8.976	9.424
O	1.076	21.396	9.424
H	10.917	-9.164	0.698
H	10.917	3.256	0.698
H	10.917	15.676	0.698
H	9.82	-9.958	1.452
H	9.82	2.462	1.452
H	9.82	14.882	1.452
O	10.038	-9.062	1.12
O	10.038	3.358	1.12
O	10.038	15.778	1.12
H	7.485	-6.337	7.628
H	7.485	6.083	7.628
H	7.485	18.503	7.628
H	7.79	-7.459	6.603
H	7.79	4.961	6.603
H	7.79	17.381	6.603
O	8.215	-6.89	7.279
O	8.215	5.53	7.279
O	8.215	17.95	7.279
H	0.092	-1.848	2.125
H	0.092	10.572	2.125
H	0.092	22.992	2.125
H	0.922	-3.15	1.986
H	0.922	9.27	1.986
H	0.922	21.69	1.986
O	0.001	-2.817	2.01
O	0.001	9.603	2.01
O	0.001	22.023	2.01
H	8.99	-7.125	4.789
H	8.99	5.295	4.789
H	8.99	17.715	4.789
H	10.284	-6.356	4.417
H	10.284	6.064	4.417
H	10.284	18.484	4.417
O	9.955	-7.104	4.959
O	9.955	5.316	4.959
O	9.955	17.736	4.959
H	7.761	-4.196	2.016
H	7.761	8.224	2.016
H	7.761	20.644	2.016
H	7.04	-3.123	1.161
H	7.04	9.297	1.161
H	7.04	21.717	1.161
O	7.58	-3.234	1.972
O	7.58	9.186	1.972
O	7.58	21.606	1.972
H	0.227	-11.91	3.561
H	0.227	0.51	3.561
H	0.227	12.93	3.561
H	1.705	-12.377	3.552
H	1.705	0.043	3.552
H	1.705	12.463	3.552
O	0.876	-12.418	3.031
O	0.876	0.002	3.031
O	0.876	12.422	3.031
H	2.739	-10.618	7.332
H	2.739	1.802	7.332
H	2.739	14.222	7.332
H	1.808	-9.807	8.269
H	1.808	2.613	8.269
H	1.808	15.033	8.269
O	2.294	-9.749	7.42
O	2.294	2.671	7.42
O	2.294	15.091	7.42
H	10.525	-1.597	9.925
H	10.525	10.823	9.925
H	10.525	23.243	9.925
H	9.713	-1.64	8.605
H	9.713	10.78	8.605
H	9.713	23.2	8.605
O	10.27	-2.194	9.191
O	10.27	10.226	9.191
O	10.27	22.646	9.191
H	8.631	-4.858	10.927
H	8.631	7.562	10.927
H	8.631	19.982	10.927
H	10.138	-4.494	10.931
H	10.138	7.926	10.931
H	10.138	20.346	10.931
O	9.244	-4.093	10.911
O	9.244	8.327	10.911
O	9.244	20.747	10.911
H	7.602	-10.239	4.189
H	7.602	2.181	4.189
H	7.602	14.601	4.189
H	6.741	-9.253	5.018
H	6.741	3.167	5.018
H	6.741	15.587	5.018
O	6.673	-9.992	4.378
O	6.673	2.428	4.378
O	6.673	14.848	4.378
H	0.233	-8.244	5.84
H	0.233	4.176	5.84
H	0.233	16.596	5.84
H	0.864	-7.778	7.177
H	0.864	4.642	7.177
H	0.864	17.062	7.177
O	0.001	-7.938	6.742
O	0.001	4.482	6.742
O	0.001	16.902	6.742
H	7.859	-5.335	3.944
H	7.859	7.085	3.944
H	7.859	19.505	3.944
H	7.426	-3.863	4.164
H	7.426	8.557	4.164
H	7.426	20.977	4.164
O	7.067	-4.768	4.052
O	7.067	7.652	4.052
O	7.067	20.072	4.052
H	10.905	-4.536	7.164
H	10.905	7.884	7.164
H	10.905	20.304	7.164
H	10.891	-2.988	7.236
H	10.891	9.432	7.236
H	10.891	21.852	7.236
O	10.657	-3.739	6.651
O	10.657	8.681	6.651
O	10.657	21.101	6.651
H	3.106	-5.579	8.215
H	3.106	6.841	8.215
H	3.106	19.261	8.215
H	4.262	-6.288	7.464
H	4.262	6.132	7.464
H	4.262	18.552	7.464
O	3.474	-6.466	8.02
O	3.474	5.954	8.02
O	3.474	18.374	8.02
H	2.992	-10.603	3.744
H	2.992	1.817	3.744
H	2.992	14.237	3.744
H	4.535	-10.464	3.746
H	4.535	1.956	3.746
H	4.535	14.376	3.746
O	3.71	-9.936	3.72
O	3.71	2.484	3.72
O	3.71	14.904	3.72
H	4.573	-2.876	8.534
H	4.573	9.544	8.534
H	4.573	21.964	8.534
H	4.11	-3.735	7.33
H	4.11	8.685	7.33
H	4.11	21.105	7.33
O	4.544	-3.799	8.207
O	4.544	8.621	8.207
O	4.544	21.041	8.207
H	10.124	-10.868	10.224
H	10.124	1.552	10.224
H	10.124	13.972	10.224
H	9.749	-11.67	8.952
H	9.749	0.75	8.952
H	9.749	13.17	8.952
O	10.27	-10.897	9.256
O	10.27	1.523	9.256
O	10.27	13.943	9.256
H	9.382	-4.455	8.748
H	9.382	7.965	8.748
H	9.382	20.385	8.748
H	9.083	-5.943	9.064
H	9.083	6.477	9.064
H	9.083	18.897	9.064
O	9.821	-5.316	8.911
O	9.821	7.104	8.911
O	9.821	19.524	8.911
H	4.989	-2.16	1.887
H	4.989	10.26	1.887
H	4.989	22.68	1.887
H	4.222	-3.484	1.641
H	4.222	8.936	1.641
H	4.222	21.356	1.641
O	4.79	-2.823	1.193
O	4.79	9.597	1.193
O	4.79	22.017	1.193
H	2.717	-3.236	3.388
H	2.717	9.184	3.388
H	2.717	21.604	3.388
H	2.847	-1.728	3.725
H	2.847	10.692	3.725
H	2.847	23.112	3.725
O	2.522	-2.579	4.089
O	2.522	9.841	4.089
O	2.522	22.261	4.089
H	8.38	-10.769	-0.001
H	8.38	1.651	-0.001
H	8.38	14.071	-0.001
H	6.841	-10.857	0.164
H	6.841	1.563	0.164
H	6.841	13.983	0.164
O	7.642	-11.411	0.054
O	7.642	1.009	0.054
O	7.642	13.429	0.054
H	3.907	-5.352	3.385
H	3.907	7.068	3.385
H	3.907	19.488	3.385
H	4.834	-6.373	4.091
H	4.834	6.047	4.091
H	4.834	18.467	4.091
O	4.784	-5.434	3.814
O	4.784	6.986	3.814
O	4.784	19.406	3.814
H	2.165	-8.51	3.035
H	2.165	3.91	3.035
H	2.165	16.33	3.035
H	2.807	-7.462	2.091
H	2.807	4.958	2.091
H	2.807	17.378	2.091
O	2.993	-8.008	2.884
O	2.993	4.412	2.884
O	2.993	16.832	2.884
H	7.65	-1.601	9.369
H	7.65	10.819	9.369
H	7.65	23.239	9.369
H	8.428	-1.5	10.706
H	8.428	10.92	10.706
H	8.428	23.34	10.706
O	7.968	-2.14	10.124
O	7.968	10.28	10.124
O	7.968	22.7	10.124
H	2.236	-6.173	0.012
H	2.236	6.247	0.012
H	2.236	18.667	0.012
H	3.308	-5.139	0.443
H	3.308	7.281	0.443
H	3.308	19.701	0.443
O	3.201	-6.069	0.152
O	3.201	6.351	0.152
O	3.201	18.771	0.152
H	9.629	-4.02	3.745
H	9.629	8.4	3.745
H	9.629	20.82	3.745
H	10.876	-4.687	3.11
H	10.876	7.733	3.11
H	10.876	20.153	3.11
O	10.569	-4.232	3.923
O	10.569	8.188	3.923
O	10.569	20.608	3.923
H	6.176	-8.798	7.695
H	6.176	3.622	7.695
H	6.176	16.042	7.695
H	5.903	-7.555	8.579
H	5.903	4.865	8.579
H	5.903	17.285	8.579
O	5.896	-7.86	7.648
O	5.896	4.56	7.648
O	5.896	16.98	7.648
H	8.803	-1.51	0.161
H	8.803	10.91	0.161
H	8.803	23.33	0.161
H	10.345	-1.5	0.001
H	10.345	10.92	0.001
H	10.345	23.34	0.001
O	9.575	-2.104	0.051
O	9.575	10.316	0.051
O	9.575	22.736	0.051
H	7.824	-11.234	7.186
H	7.824	1.186	7.186
H	7.824	13.606	7.186
H	7.606	-11.785	5.754
H	7.606	0.635	5.754
H	7.606	13.055	5.754
O	8.035	-11.054	6.246
O	8.035	1.366	6.246
O	8.035	13.786	6.246
H	6.179	-8.16	3.177
H	6.179	4.26	3.177
H	6.179	16.68	3.177
H	5.02	-8.796	2.368
H	5.02	3.624	2.368
H	5.02	16.044	2.368
O	5.966	-8.918	2.595
O	5.966	3.502	2.595
O	5.966	15.922	2.595
H	0.001	-4.431	6.966
H	0.001	7.989	6.966
H	0.001	20.409	6.966
H	0.087	-2.925	6.612
H	0.087	9.495	6.612
H	0.087	21.915	6.612
O	0.266	-3.817	6.249
O	0.266	8.603	6.249
O	0.266	21.023	6.249
